51

C         -0.00166       -0.00936       10.15656
C          0.00060       -0.84854        8.88514
C         -0.00098       -0.01120        7.61253
C         -0.00111       -0.84639       11.42937
C          0.00197       -0.85016        6.34096
C         -0.00272       -0.00697       12.70063
C         -0.00057       -0.01205        5.06885
C         -0.00325       -0.84408       13.97339
C          0.00317       -0.85122        3.79747
C         -0.00398       -0.00417       15.24421
C         -0.00025       -0.01073        2.52660
C         -0.00620       -0.84209       16.51672
C          0.00436       -0.85605        1.25799
C          0.00000        0.00000       17.78631
C          0.00000        0.00000        0.00000
C         -0.01381       -0.84772       19.04614
S          0.00698       -1.08526       -1.46046
H          0.87295        0.65005       10.15661
H         -0.87849        0.64711       10.15541
H         -0.87360       -1.50847        8.88534
H          0.87782       -1.50445        8.88586
H          0.87295        0.64909        7.61260
H         -0.87852        0.64432        7.61166
H         -0.87596       -1.50546       11.42958
H          0.87546       -1.50317       11.43040
H         -0.87158       -1.51087        6.34093
H          0.87986       -1.50510        6.34127
H          0.87259        0.65145       12.70082
H         -0.87888        0.65038       12.69922
H          0.87279        0.64895        5.06906
H         -0.87886        0.64239        5.06826
H         -0.87881       -1.50223       13.97354
H          0.87273       -1.50156       13.97464
H         -0.86987       -1.51228        3.79653
H          0.88180       -1.50482        3.79680
H          0.87229        0.65258       15.24542
H         -0.87923        0.65424       15.24284
H          0.87313        0.64978        2.52687
H         -0.87986        0.64145        2.52609
H         -0.88403       -1.49709       16.51579
H          0.86788       -1.50183       16.51572
H         -0.86958       -1.51393        1.25128
H          0.88518       -1.50468        1.25156
H          0.88301        0.64447       17.80772
H         -0.87443        0.66147       17.78897
H          0.88196        0.63952       -0.02318
H         -0.88931        0.62925       -0.02401
O          0.04670       -0.07608       20.23079
H         -0.89831       -1.49701       19.04970
H          0.86429       -1.49540       19.07003
H         -0.70656        0.52104       20.24417
